Circuit: * Z:\home\joaquin\Escritorio\TC2\Tc2 GitHub\TC2\W10\Ts5\simulaciones\Circuito_activado.asc

Ignoring empty pin current: Ix(u1:1)
Ignoring empty pin current: Ix(u1:2)
Ignoring empty pin current: Ix(u2:1)
Ignoring empty pin current: Ix(u2:2)
Ignoring empty pin current: Ix(u3:1)
Ignoring empty pin current: Ix(u3:2)
Ignoring empty pin current: Ix(u4:1)
Ignoring empty pin current: Ix(u4:2)

Date: Wed Jun 21 13:41:47 2023
Total elapsed time: 0.060 seconds.

tnom = 27
temp = 27
method = trap
totiter = 0
traniter = 0
tranpoints = 0
accept = 0
rejected = 0
matrix size = 16
fillins = 12
solver = Normal

