Circuit: * C:\users\joaquin\Escritorio\TC2\W16\Draft2.asc


Date: Sat Nov 18 16:40:23 2023
Total elapsed time: 0.027 seconds.

tnom = 27
temp = 27
method = trap
totiter = 0
traniter = 0
tranpoints = 0
accept = 0
rejected = 0
matrix size = 2
fillins = 0
solver = Normal

