Circuit: * C:\users\joaquin\Escritorio\TC2\W16\TS12\sim\TS12_E2.asc


Date: Fri Nov 24 11:08:29 2023
Total elapsed time: 0.053 seconds.

tnom = 27
temp = 27
method = trap
totiter = 0
traniter = 0
tranpoints = 0
accept = 0
rejected = 0
matrix size = 2
fillins = 0
solver = Normal

