Circuit: * C:\users\joaquin\Escritorio\TC2\W16\TS12\sim\TS12E1.asc


Date: Fri Nov 24 11:04:49 2023
Total elapsed time: 0.068 seconds.

tnom = 27
temp = 27
method = trap
totiter = 0
traniter = 0
tranpoints = 0
accept = 0
rejected = 0
matrix size = 3
fillins = 0
solver = Normal

