Circuit: * Z:\home\joaquin\Escritorio\TC2\W11\TS6\Sim\TS6_E2.asc


Date: Wed Aug 23 12:34:56 2023
Total elapsed time: 0.075 seconds.

tnom = 27
temp = 27
method = trap
totiter = 0
traniter = 0
tranpoints = 0
accept = 0
rejected = 0
matrix size = 4
fillins = 1
solver = Normal

