Circuit: * C:\users\joaquin\Escritorio\TC2\TPL2\Simulaciones\sallen-key.asc

Ignoring empty pin current: Ix(u1:1)
Ignoring empty pin current: Ix(u1:2)

Date: Mon Dec 04 17:12:11 2023
Total elapsed time: 0.040 seconds.

tnom = 27
temp = 27
method = trap
totiter = 0
traniter = 0
tranpoints = 0
accept = 0
rejected = 0
matrix size = 5
fillins = 0
solver = Normal

